<?xml version="1.0" encoding="UTF-8"?>

<!-- generated on 2025-07-03 17:22:42.864065 by randomTrips.py v1_22_0+0002-63e50f52594
<configuration>
    <net-file value="dataset.net.xml"/>
    <output-trip-file value="random_trips.rou.xml"/>
    <trip-attributes value="departLane=&quot;best&quot; departSpeed=&quot;max&quot; departPos=&quot;random_free&quot;"/>
    <seed value="1751538162"/>
    <validate value="True"/>
    <period value="9.0"/>
</configuration>
-->

<!-- generated on 2025-07-03 17:22:42 by Eclipse SUMO duarouter Version 1.22.0
<duarouterConfiguration xmlns:xsi="http://www.w3.org/2001/XMLSchema-instance" xsi:noNamespaceSchemaLocation="http://sumo.dlr.de/xsd/duarouterConfiguration.xsd">

    <input>
        <net-file value="dataset.net.xml"/>
        <route-files value="random_trips.rou.xml"/>
    </input>

    <output>
        <output-file value="routes.rou.xml"/>
        <alternatives-output value="NUL"/>
    </output>

    <time>
        <begin value="0.0"/>
        <end value="3600.0"/>
    </time>

    <report>
        <no-warnings value="true"/>
        <ignore-errors value="true"/>
        <no-step-log value="true"/>
    </report>

</duarouterConfiguration>
-->

<routes xmlns:xsi="http://www.w3.org/2001/XMLSchema-instance" xsi:noNamespaceSchemaLocation="http://sumo.dlr.de/xsd/routes_file.xsd">
    <vehicle id="1" depart="9.00" departLane="best" departPos="random_free" departSpeed="max">
        <route edges="E3-2 E3-5"/>
    </vehicle>
    <vehicle id="3" depart="27.00" departLane="best" departPos="random_free" departSpeed="max">
        <route edges="E3-4 E3-5"/>
    </vehicle>
    <vehicle id="4" depart="36.00" departLane="best" departPos="random_free" departSpeed="max">
        <route edges="E3-4 E2-3"/>
    </vehicle>
    <vehicle id="6" depart="54.00" departLane="best" departPos="random_free" departSpeed="max">
        <route edges="E1-3 E2-3"/>
    </vehicle>
    <vehicle id="7" depart="63.00" departLane="best" departPos="random_free" departSpeed="max">
        <route edges="E5-3 E2-3"/>
    </vehicle>
    <vehicle id="9" depart="81.00" departLane="best" departPos="random_free" departSpeed="max">
        <route edges="E5-3 E4-3"/>
    </vehicle>
    <vehicle id="10" depart="90.00" departLane="best" departPos="random_free" departSpeed="max">
        <route edges="E5-3 E3-1"/>
    </vehicle>
    <vehicle id="11" depart="99.00" departLane="best" departPos="random_free" departSpeed="max">
        <route edges="E5-3 E4-3"/>
    </vehicle>
    <vehicle id="13" depart="117.00" departLane="best" departPos="random_free" departSpeed="max">
        <route edges="E1-3 E3-5"/>
    </vehicle>
    <vehicle id="14" depart="126.00" departLane="best" departPos="random_free" departSpeed="max">
        <route edges="E5-3 E4-3"/>
    </vehicle>
    <vehicle id="15" depart="135.00" departLane="best" departPos="random_free" departSpeed="max">
        <route edges="E5-3 E4-3"/>
    </vehicle>
    <vehicle id="16" depart="144.00" departLane="best" departPos="random_free" departSpeed="max">
        <route edges="E3-4 E3-5"/>
    </vehicle>
    <vehicle id="19" depart="171.00" departLane="best" departPos="random_free" departSpeed="max">
        <route edges="E3-4 E2-3"/>
    </vehicle>
    <vehicle id="20" depart="180.00" departLane="best" departPos="random_free" departSpeed="max">
        <route edges="E1-3 E4-3"/>
    </vehicle>
    <vehicle id="21" depart="189.00" departLane="best" departPos="random_free" departSpeed="max">
        <route edges="E3-2 E4-3"/>
    </vehicle>
    <vehicle id="22" depart="198.00" departLane="best" departPos="random_free" departSpeed="max">
        <route edges="E1-3 E3-5"/>
    </vehicle>
    <vehicle id="23" depart="207.00" departLane="best" departPos="random_free" departSpeed="max">
        <route edges="E1-3 E4-3"/>
    </vehicle>
    <vehicle id="24" depart="216.00" departLane="best" departPos="random_free" departSpeed="max">
        <route edges="E3-4 E2-3"/>
    </vehicle>
    <vehicle id="25" depart="225.00" departLane="best" departPos="random_free" departSpeed="max">
        <route edges="E5-3 E2-3"/>
    </vehicle>
    <vehicle id="27" depart="243.00" departLane="best" departPos="random_free" departSpeed="max">
        <route edges="E5-3 E4-3"/>
    </vehicle>
    <vehicle id="28" depart="252.00" departLane="best" departPos="random_free" departSpeed="max">
        <route edges="E5-3 E4-3"/>
    </vehicle>
    <vehicle id="29" depart="261.00" departLane="best" departPos="random_free" departSpeed="max">
        <route edges="E5-3 E4-3"/>
    </vehicle>
    <vehicle id="30" depart="270.00" departLane="best" departPos="random_free" departSpeed="max">
        <route edges="E3-4 E3-1"/>
    </vehicle>
    <vehicle id="31" depart="279.00" departLane="best" departPos="random_free" departSpeed="max">
        <route edges="E1-3 E2-3"/>
    </vehicle>
    <vehicle id="33" depart="297.00" departLane="best" departPos="random_free" departSpeed="max">
        <route edges="E1-3 E2-3"/>
    </vehicle>
    <vehicle id="35" depart="315.00" departLane="best" departPos="random_free" departSpeed="max">
        <route edges="E5-3 E2-3"/>
    </vehicle>
    <vehicle id="37" depart="333.00" departLane="best" departPos="random_free" departSpeed="max">
        <route edges="E3-4 E3-5"/>
    </vehicle>
    <vehicle id="38" depart="342.00" departLane="best" departPos="random_free" departSpeed="max">
        <route edges="E3-2 E3-5"/>
    </vehicle>
    <vehicle id="39" depart="351.00" departLane="best" departPos="random_free" departSpeed="max">
        <route edges="E3-4 E2-3"/>
    </vehicle>
    <vehicle id="40" depart="360.00" departLane="best" departPos="random_free" departSpeed="max">
        <route edges="E5-3 E2-3"/>
    </vehicle>
    <vehicle id="41" depart="369.00" departLane="best" departPos="random_free" departSpeed="max">
        <route edges="E3-4 E2-3"/>
    </vehicle>
    <vehicle id="43" depart="387.00" departLane="best" departPos="random_free" departSpeed="max">
        <route edges="E5-3 E4-3"/>
    </vehicle>
    <vehicle id="44" depart="396.00" departLane="best" departPos="random_free" departSpeed="max">
        <route edges="E3-4 E3-5"/>
    </vehicle>
    <vehicle id="45" depart="405.00" departLane="best" departPos="random_free" departSpeed="max">
        <route edges="E1-3 E2-3"/>
    </vehicle>
    <vehicle id="46" depart="414.00" departLane="best" departPos="random_free" departSpeed="max">
        <route edges="E3-2 E3-1"/>
    </vehicle>
    <vehicle id="48" depart="432.00" departLane="best" departPos="random_free" departSpeed="max">
        <route edges="E5-3 E4-3"/>
    </vehicle>
    <vehicle id="49" depart="441.00" departLane="best" departPos="random_free" departSpeed="max">
        <route edges="E1-3 E4-3"/>
    </vehicle>
    <vehicle id="50" depart="450.00" departLane="best" departPos="random_free" departSpeed="max">
        <route edges="E3-2 E4-3"/>
    </vehicle>
    <vehicle id="53" depart="477.00" departLane="best" departPos="random_free" departSpeed="max">
        <route edges="E5-3 E4-3"/>
    </vehicle>
    <vehicle id="54" depart="486.00" departLane="best" departPos="random_free" departSpeed="max">
        <route edges="E5-3 E2-3"/>
    </vehicle>
    <vehicle id="55" depart="495.00" departLane="best" departPos="random_free" departSpeed="max">
        <route edges="E3-2 E3-1"/>
    </vehicle>
    <vehicle id="56" depart="504.00" departLane="best" departPos="random_free" departSpeed="max">
        <route edges="E3-2 E3-5"/>
    </vehicle>
    <vehicle id="57" depart="513.00" departLane="best" departPos="random_free" departSpeed="max">
        <route edges="E3-2 E4-3"/>
    </vehicle>
    <vehicle id="58" depart="522.00" departLane="best" departPos="random_free" departSpeed="max">
        <route edges="E3-2 E4-3"/>
    </vehicle>
    <vehicle id="59" depart="531.00" departLane="best" departPos="random_free" departSpeed="max">
        <route edges="E3-4 E2-3"/>
    </vehicle>
    <vehicle id="60" depart="540.00" departLane="best" departPos="random_free" departSpeed="max">
        <route edges="E3-4 E3-5"/>
    </vehicle>
    <vehicle id="61" depart="549.00" departLane="best" departPos="random_free" departSpeed="max">
        <route edges="E5-3 E2-3"/>
    </vehicle>
    <vehicle id="62" depart="558.00" departLane="best" departPos="random_free" departSpeed="max">
        <route edges="E3-4 E3-1"/>
    </vehicle>
    <vehicle id="64" depart="576.00" departLane="best" departPos="random_free" departSpeed="max">
        <route edges="E3-2 E3-5"/>
    </vehicle>
    <vehicle id="68" depart="612.00" departLane="best" departPos="random_free" departSpeed="max">
        <route edges="E5-3 E3-1"/>
    </vehicle>
    <vehicle id="71" depart="639.00" departLane="best" departPos="random_free" departSpeed="max">
        <route edges="E3-2 E3-1"/>
    </vehicle>
    <vehicle id="72" depart="648.00" departLane="best" departPos="random_free" departSpeed="max">
        <route edges="E5-3 E3-1"/>
    </vehicle>
    <vehicle id="73" depart="657.00" departLane="best" departPos="random_free" departSpeed="max">
        <route edges="E5-3 E2-3"/>
    </vehicle>
    <vehicle id="74" depart="666.00" departLane="best" departPos="random_free" departSpeed="max">
        <route edges="E5-3 E2-3"/>
    </vehicle>
    <vehicle id="76" depart="684.00" departLane="best" departPos="random_free" departSpeed="max">
        <route edges="E3-4 E3-5"/>
    </vehicle>
    <vehicle id="77" depart="693.00" departLane="best" departPos="random_free" departSpeed="max">
        <route edges="E1-3 E2-3"/>
    </vehicle>
    <vehicle id="78" depart="702.00" departLane="best" departPos="random_free" departSpeed="max">
        <route edges="E5-3 E4-3"/>
    </vehicle>
    <vehicle id="79" depart="711.00" departLane="best" departPos="random_free" departSpeed="max">
        <route edges="E3-2 E3-1"/>
    </vehicle>
    <vehicle id="80" depart="720.00" departLane="best" departPos="random_free" departSpeed="max">
        <route edges="E3-2 E4-3"/>
    </vehicle>
    <vehicle id="81" depart="729.00" departLane="best" departPos="random_free" departSpeed="max">
        <route edges="E1-3 E4-3"/>
    </vehicle>
    <vehicle id="82" depart="738.00" departLane="best" departPos="random_free" departSpeed="max">
        <route edges="E3-2 E3-5"/>
    </vehicle>
    <vehicle id="83" depart="747.00" departLane="best" departPos="random_free" departSpeed="max">
        <route edges="E3-2 E3-1"/>
    </vehicle>
    <vehicle id="86" depart="774.00" departLane="best" departPos="random_free" departSpeed="max">
        <route edges="E3-4 E3-5"/>
    </vehicle>
    <vehicle id="87" depart="783.00" departLane="best" departPos="random_free" departSpeed="max">
        <route edges="E1-3 E3-5"/>
    </vehicle>
    <vehicle id="88" depart="792.00" departLane="best" departPos="random_free" departSpeed="max">
        <route edges="E3-4 E2-3"/>
    </vehicle>
    <vehicle id="89" depart="801.00" departLane="best" departPos="random_free" departSpeed="max">
        <route edges="E3-2 E3-1"/>
    </vehicle>
    <vehicle id="91" depart="819.00" departLane="best" departPos="random_free" departSpeed="max">
        <route edges="E3-4 E3-1"/>
    </vehicle>
    <vehicle id="93" depart="837.00" departLane="best" departPos="random_free" departSpeed="max">
        <route edges="E1-3 E4-3"/>
    </vehicle>
    <vehicle id="94" depart="846.00" departLane="best" departPos="random_free" departSpeed="max">
        <route edges="E3-2 E3-1"/>
    </vehicle>
    <vehicle id="96" depart="864.00" departLane="best" departPos="random_free" departSpeed="max">
        <route edges="E1-3 E4-3"/>
    </vehicle>
    <vehicle id="98" depart="882.00" departLane="best" departPos="random_free" departSpeed="max">
        <route edges="E3-4 E2-3"/>
    </vehicle>
    <vehicle id="99" depart="891.00" departLane="best" departPos="random_free" departSpeed="max">
        <route edges="E3-2 E3-1"/>
    </vehicle>
    <vehicle id="101" depart="909.00" departLane="best" departPos="random_free" departSpeed="max">
        <route edges="E3-2 E4-3"/>
    </vehicle>
    <vehicle id="102" depart="918.00" departLane="best" departPos="random_free" departSpeed="max">
        <route edges="E1-3 E3-5"/>
    </vehicle>
    <vehicle id="103" depart="927.00" departLane="best" departPos="random_free" departSpeed="max">
        <route edges="E3-4 E3-5"/>
    </vehicle>
    <vehicle id="104" depart="936.00" departLane="best" departPos="random_free" departSpeed="max">
        <route edges="E3-2 E3-5"/>
    </vehicle>
    <vehicle id="105" depart="945.00" departLane="best" departPos="random_free" departSpeed="max">
        <route edges="E3-4 E3-1"/>
    </vehicle>
    <vehicle id="106" depart="954.00" departLane="best" departPos="random_free" departSpeed="max">
        <route edges="E3-4 E3-5"/>
    </vehicle>
    <vehicle id="108" depart="972.00" departLane="best" departPos="random_free" departSpeed="max">
        <route edges="E3-2 E3-1"/>
    </vehicle>
    <vehicle id="109" depart="981.00" departLane="best" departPos="random_free" departSpeed="max">
        <route edges="E5-3 E3-1"/>
    </vehicle>
    <vehicle id="113" depart="1017.00" departLane="best" departPos="random_free" departSpeed="max">
        <route edges="E3-4 E3-5"/>
    </vehicle>
    <vehicle id="114" depart="1026.00" departLane="best" departPos="random_free" departSpeed="max">
        <route edges="E3-4 E2-3"/>
    </vehicle>
    <vehicle id="116" depart="1044.00" departLane="best" departPos="random_free" departSpeed="max">
        <route edges="E3-2 E3-1"/>
    </vehicle>
    <vehicle id="118" depart="1062.00" departLane="best" departPos="random_free" departSpeed="max">
        <route edges="E3-4 E3-5"/>
    </vehicle>
    <vehicle id="119" depart="1071.00" departLane="best" departPos="random_free" departSpeed="max">
        <route edges="E5-3 E4-3"/>
    </vehicle>
    <vehicle id="120" depart="1080.00" departLane="best" departPos="random_free" departSpeed="max">
        <route edges="E5-3 E4-3"/>
    </vehicle>
    <vehicle id="121" depart="1089.00" departLane="best" departPos="random_free" departSpeed="max">
        <route edges="E3-4 E2-3"/>
    </vehicle>
    <vehicle id="123" depart="1107.00" departLane="best" departPos="random_free" departSpeed="max">
        <route edges="E5-3 E3-1"/>
    </vehicle>
    <vehicle id="124" depart="1116.00" departLane="best" departPos="random_free" departSpeed="max">
        <route edges="E3-4 E3-1"/>
    </vehicle>
    <vehicle id="126" depart="1134.00" departLane="best" departPos="random_free" departSpeed="max">
        <route edges="E3-2 E3-5"/>
    </vehicle>
    <vehicle id="127" depart="1143.00" departLane="best" departPos="random_free" departSpeed="max">
        <route edges="E3-4 E3-1"/>
    </vehicle>
    <vehicle id="129" depart="1161.00" departLane="best" departPos="random_free" departSpeed="max">
        <route edges="E3-4 E3-1"/>
    </vehicle>
    <vehicle id="130" depart="1170.00" departLane="best" departPos="random_free" departSpeed="max">
        <route edges="E3-4 E2-3"/>
    </vehicle>
    <vehicle id="131" depart="1179.00" departLane="best" departPos="random_free" departSpeed="max">
        <route edges="E1-3 E2-3"/>
    </vehicle>
    <vehicle id="132" depart="1188.00" departLane="best" departPos="random_free" departSpeed="max">
        <route edges="E1-3 E2-3"/>
    </vehicle>
    <vehicle id="135" depart="1215.00" departLane="best" departPos="random_free" departSpeed="max">
        <route edges="E5-3 E2-3"/>
    </vehicle>
    <vehicle id="136" depart="1224.00" departLane="best" departPos="random_free" departSpeed="max">
        <route edges="E5-3 E3-1"/>
    </vehicle>
    <vehicle id="137" depart="1233.00" departLane="best" departPos="random_free" departSpeed="max">
        <route edges="E1-3 E4-3"/>
    </vehicle>
    <vehicle id="138" depart="1242.00" departLane="best" departPos="random_free" departSpeed="max">
        <route edges="E3-4 E3-1"/>
    </vehicle>
    <vehicle id="139" depart="1251.00" departLane="best" departPos="random_free" departSpeed="max">
        <route edges="E3-2 E4-3"/>
    </vehicle>
    <vehicle id="140" depart="1260.00" departLane="best" departPos="random_free" departSpeed="max">
        <route edges="E1-3 E2-3"/>
    </vehicle>
    <vehicle id="142" depart="1278.00" departLane="best" departPos="random_free" departSpeed="max">
        <route edges="E3-4 E2-3"/>
    </vehicle>
    <vehicle id="144" depart="1296.00" departLane="best" departPos="random_free" departSpeed="max">
        <route edges="E5-3 E4-3"/>
    </vehicle>
    <vehicle id="145" depart="1305.00" departLane="best" departPos="random_free" departSpeed="max">
        <route edges="E3-2 E3-5"/>
    </vehicle>
    <vehicle id="146" depart="1314.00" departLane="best" departPos="random_free" departSpeed="max">
        <route edges="E5-3 E3-1"/>
    </vehicle>
    <vehicle id="147" depart="1323.00" departLane="best" departPos="random_free" departSpeed="max">
        <route edges="E3-4 E2-3"/>
    </vehicle>
    <vehicle id="148" depart="1332.00" departLane="best" departPos="random_free" departSpeed="max">
        <route edges="E1-3 E4-3"/>
    </vehicle>
    <vehicle id="149" depart="1341.00" departLane="best" departPos="random_free" departSpeed="max">
        <route edges="E3-2 E3-1"/>
    </vehicle>
    <vehicle id="150" depart="1350.00" departLane="best" departPos="random_free" departSpeed="max">
        <route edges="E1-3 E3-5"/>
    </vehicle>
    <vehicle id="152" depart="1368.00" departLane="best" departPos="random_free" departSpeed="max">
        <route edges="E3-4 E3-5"/>
    </vehicle>
    <vehicle id="153" depart="1377.00" departLane="best" departPos="random_free" departSpeed="max">
        <route edges="E1-3 E3-5"/>
    </vehicle>
    <vehicle id="154" depart="1386.00" departLane="best" departPos="random_free" departSpeed="max">
        <route edges="E5-3 E2-3"/>
    </vehicle>
    <vehicle id="155" depart="1395.00" departLane="best" departPos="random_free" departSpeed="max">
        <route edges="E3-2 E3-1"/>
    </vehicle>
    <vehicle id="156" depart="1404.00" departLane="best" departPos="random_free" departSpeed="max">
        <route edges="E3-4 E3-1"/>
    </vehicle>
    <vehicle id="158" depart="1422.00" departLane="best" departPos="random_free" departSpeed="max">
        <route edges="E3-2 E3-5"/>
    </vehicle>
    <vehicle id="159" depart="1431.00" departLane="best" departPos="random_free" departSpeed="max">
        <route edges="E3-4 E3-5"/>
    </vehicle>
    <vehicle id="160" depart="1440.00" departLane="best" departPos="random_free" departSpeed="max">
        <route edges="E1-3 E3-5"/>
    </vehicle>
    <vehicle id="161" depart="1449.00" departLane="best" departPos="random_free" departSpeed="max">
        <route edges="E1-3 E3-5"/>
    </vehicle>
    <vehicle id="162" depart="1458.00" departLane="best" departPos="random_free" departSpeed="max">
        <route edges="E3-4 E3-5"/>
    </vehicle>
    <vehicle id="163" depart="1467.00" departLane="best" departPos="random_free" departSpeed="max">
        <route edges="E3-2 E3-5"/>
    </vehicle>
    <vehicle id="164" depart="1476.00" departLane="best" departPos="random_free" departSpeed="max">
        <route edges="E5-3 E2-3"/>
    </vehicle>
    <vehicle id="165" depart="1485.00" departLane="best" departPos="random_free" departSpeed="max">
        <route edges="E3-2 E4-3"/>
    </vehicle>
    <vehicle id="166" depart="1494.00" departLane="best" departPos="random_free" departSpeed="max">
        <route edges="E1-3 E2-3"/>
    </vehicle>
    <vehicle id="167" depart="1503.00" departLane="best" departPos="random_free" departSpeed="max">
        <route edges="E3-4 E2-3"/>
    </vehicle>
    <vehicle id="168" depart="1512.00" departLane="best" departPos="random_free" departSpeed="max">
        <route edges="E1-3 E4-3"/>
    </vehicle>
    <vehicle id="169" depart="1521.00" departLane="best" departPos="random_free" departSpeed="max">
        <route edges="E3-4 E2-3"/>
    </vehicle>
    <vehicle id="171" depart="1539.00" departLane="best" departPos="random_free" departSpeed="max">
        <route edges="E5-3 E3-1"/>
    </vehicle>
    <vehicle id="173" depart="1557.00" departLane="best" departPos="random_free" departSpeed="max">
        <route edges="E1-3 E4-3"/>
    </vehicle>
    <vehicle id="175" depart="1575.00" departLane="best" departPos="random_free" departSpeed="max">
        <route edges="E3-2 E4-3"/>
    </vehicle>
    <vehicle id="176" depart="1584.00" departLane="best" departPos="random_free" departSpeed="max">
        <route edges="E5-3 E3-1"/>
    </vehicle>
    <vehicle id="178" depart="1602.00" departLane="best" departPos="random_free" departSpeed="max">
        <route edges="E5-3 E3-1"/>
    </vehicle>
    <vehicle id="179" depart="1611.00" departLane="best" departPos="random_free" departSpeed="max">
        <route edges="E3-2 E4-3"/>
    </vehicle>
    <vehicle id="180" depart="1620.00" departLane="best" departPos="random_free" departSpeed="max">
        <route edges="E3-4 E3-5"/>
    </vehicle>
    <vehicle id="181" depart="1629.00" departLane="best" departPos="random_free" departSpeed="max">
        <route edges="E5-3 E3-1"/>
    </vehicle>
    <vehicle id="182" depart="1638.00" departLane="best" departPos="random_free" departSpeed="max">
        <route edges="E3-4 E3-1"/>
    </vehicle>
    <vehicle id="183" depart="1647.00" departLane="best" departPos="random_free" departSpeed="max">
        <route edges="E3-4 E3-5"/>
    </vehicle>
    <vehicle id="184" depart="1656.00" departLane="best" departPos="random_free" departSpeed="max">
        <route edges="E1-3 E3-5"/>
    </vehicle>
    <vehicle id="185" depart="1665.00" departLane="best" departPos="random_free" departSpeed="max">
        <route edges="E3-4 E3-1"/>
    </vehicle>
    <vehicle id="189" depart="1701.00" departLane="best" departPos="random_free" departSpeed="max">
        <route edges="E5-3 E2-3"/>
    </vehicle>
    <vehicle id="190" depart="1710.00" departLane="best" departPos="random_free" departSpeed="max">
        <route edges="E5-3 E2-3"/>
    </vehicle>
    <vehicle id="193" depart="1737.00" departLane="best" departPos="random_free" departSpeed="max">
        <route edges="E3-4 E3-5"/>
    </vehicle>
    <vehicle id="194" depart="1746.00" departLane="best" departPos="random_free" departSpeed="max">
        <route edges="E5-3 E2-3"/>
    </vehicle>
    <vehicle id="195" depart="1755.00" departLane="best" departPos="random_free" departSpeed="max">
        <route edges="E3-4 E3-5"/>
    </vehicle>
    <vehicle id="197" depart="1773.00" departLane="best" departPos="random_free" departSpeed="max">
        <route edges="E1-3 E2-3"/>
    </vehicle>
    <vehicle id="199" depart="1791.00" departLane="best" departPos="random_free" departSpeed="max">
        <route edges="E3-2 E3-1"/>
    </vehicle>
    <vehicle id="200" depart="1800.00" departLane="best" departPos="random_free" departSpeed="max">
        <route edges="E3-4 E3-1"/>
    </vehicle>
    <vehicle id="201" depart="1809.00" departLane="best" departPos="random_free" departSpeed="max">
        <route edges="E5-3 E2-3"/>
    </vehicle>
    <vehicle id="202" depart="1818.00" departLane="best" departPos="random_free" departSpeed="max">
        <route edges="E3-2 E3-1"/>
    </vehicle>
    <vehicle id="203" depart="1827.00" departLane="best" departPos="random_free" departSpeed="max">
        <route edges="E3-2 E4-3"/>
    </vehicle>
    <vehicle id="204" depart="1836.00" departLane="best" departPos="random_free" departSpeed="max">
        <route edges="E3-2 E3-5"/>
    </vehicle>
    <vehicle id="205" depart="1845.00" departLane="best" departPos="random_free" departSpeed="max">
        <route edges="E3-4 E3-5"/>
    </vehicle>
    <vehicle id="206" depart="1854.00" departLane="best" departPos="random_free" departSpeed="max">
        <route edges="E5-3 E4-3"/>
    </vehicle>
    <vehicle id="207" depart="1863.00" departLane="best" departPos="random_free" departSpeed="max">
        <route edges="E1-3 E4-3"/>
    </vehicle>
    <vehicle id="208" depart="1872.00" departLane="best" departPos="random_free" departSpeed="max">
        <route edges="E5-3 E4-3"/>
    </vehicle>
    <vehicle id="209" depart="1881.00" departLane="best" departPos="random_free" departSpeed="max">
        <route edges="E5-3 E4-3"/>
    </vehicle>
    <vehicle id="210" depart="1890.00" departLane="best" departPos="random_free" departSpeed="max">
        <route edges="E1-3 E3-5"/>
    </vehicle>
    <vehicle id="211" depart="1899.00" departLane="best" departPos="random_free" departSpeed="max">
        <route edges="E1-3 E3-5"/>
    </vehicle>
    <vehicle id="212" depart="1908.00" departLane="best" departPos="random_free" departSpeed="max">
        <route edges="E3-4 E2-3"/>
    </vehicle>
    <vehicle id="213" depart="1917.00" departLane="best" departPos="random_free" departSpeed="max">
        <route edges="E3-4 E2-3"/>
    </vehicle>
    <vehicle id="214" depart="1926.00" departLane="best" departPos="random_free" departSpeed="max">
        <route edges="E5-3 E3-1"/>
    </vehicle>
    <vehicle id="215" depart="1935.00" departLane="best" departPos="random_free" departSpeed="max">
        <route edges="E1-3 E2-3"/>
    </vehicle>
    <vehicle id="218" depart="1962.00" departLane="best" departPos="random_free" departSpeed="max">
        <route edges="E1-3 E2-3"/>
    </vehicle>
    <vehicle id="219" depart="1971.00" departLane="best" departPos="random_free" departSpeed="max">
        <route edges="E3-4 E2-3"/>
    </vehicle>
    <vehicle id="220" depart="1980.00" departLane="best" departPos="random_free" departSpeed="max">
        <route edges="E5-3 E4-3"/>
    </vehicle>
    <vehicle id="221" depart="1989.00" departLane="best" departPos="random_free" departSpeed="max">
        <route edges="E3-4 E3-5"/>
    </vehicle>
    <vehicle id="222" depart="1998.00" departLane="best" departPos="random_free" departSpeed="max">
        <route edges="E3-2 E3-5"/>
    </vehicle>
    <vehicle id="223" depart="2007.00" departLane="best" departPos="random_free" departSpeed="max">
        <route edges="E3-4 E3-1"/>
    </vehicle>
    <vehicle id="224" depart="2016.00" departLane="best" departPos="random_free" departSpeed="max">
        <route edges="E1-3 E4-3"/>
    </vehicle>
    <vehicle id="225" depart="2025.00" departLane="best" departPos="random_free" departSpeed="max">
        <route edges="E1-3 E3-5"/>
    </vehicle>
    <vehicle id="226" depart="2034.00" departLane="best" departPos="random_free" departSpeed="max">
        <route edges="E1-3 E2-3"/>
    </vehicle>
    <vehicle id="227" depart="2043.00" departLane="best" departPos="random_free" departSpeed="max">
        <route edges="E5-3 E4-3"/>
    </vehicle>
    <vehicle id="228" depart="2052.00" departLane="best" departPos="random_free" departSpeed="max">
        <route edges="E5-3 E3-1"/>
    </vehicle>
    <vehicle id="229" depart="2061.00" departLane="best" departPos="random_free" departSpeed="max">
        <route edges="E5-3 E4-3"/>
    </vehicle>
    <vehicle id="230" depart="2070.00" departLane="best" departPos="random_free" departSpeed="max">
        <route edges="E3-2 E3-5"/>
    </vehicle>
    <vehicle id="231" depart="2079.00" departLane="best" departPos="random_free" departSpeed="max">
        <route edges="E3-4 E2-3"/>
    </vehicle>
    <vehicle id="232" depart="2088.00" departLane="best" departPos="random_free" departSpeed="max">
        <route edges="E3-2 E3-1"/>
    </vehicle>
    <vehicle id="233" depart="2097.00" departLane="best" departPos="random_free" departSpeed="max">
        <route edges="E5-3 E2-3"/>
    </vehicle>
    <vehicle id="234" depart="2106.00" departLane="best" departPos="random_free" departSpeed="max">
        <route edges="E3-4 E2-3"/>
    </vehicle>
    <vehicle id="235" depart="2115.00" departLane="best" departPos="random_free" departSpeed="max">
        <route edges="E3-2 E3-1"/>
    </vehicle>
    <vehicle id="236" depart="2124.00" departLane="best" departPos="random_free" departSpeed="max">
        <route edges="E1-3 E4-3"/>
    </vehicle>
    <vehicle id="238" depart="2142.00" departLane="best" departPos="random_free" departSpeed="max">
        <route edges="E3-2 E4-3"/>
    </vehicle>
    <vehicle id="239" depart="2151.00" departLane="best" departPos="random_free" departSpeed="max">
        <route edges="E5-3 E3-1"/>
    </vehicle>
    <vehicle id="241" depart="2169.00" departLane="best" departPos="random_free" departSpeed="max">
        <route edges="E5-3 E2-3"/>
    </vehicle>
    <vehicle id="242" depart="2178.00" departLane="best" departPos="random_free" departSpeed="max">
        <route edges="E3-2 E4-3"/>
    </vehicle>
    <vehicle id="244" depart="2196.00" departLane="best" departPos="random_free" departSpeed="max">
        <route edges="E5-3 E2-3"/>
    </vehicle>
    <vehicle id="245" depart="2205.00" departLane="best" departPos="random_free" departSpeed="max">
        <route edges="E5-3 E3-1"/>
    </vehicle>
    <vehicle id="246" depart="2214.00" departLane="best" departPos="random_free" departSpeed="max">
        <route edges="E1-3 E2-3"/>
    </vehicle>
    <vehicle id="248" depart="2232.00" departLane="best" departPos="random_free" departSpeed="max">
        <route edges="E3-2 E3-1"/>
    </vehicle>
    <vehicle id="249" depart="2241.00" departLane="best" departPos="random_free" departSpeed="max">
        <route edges="E5-3 E3-1"/>
    </vehicle>
    <vehicle id="250" depart="2250.00" departLane="best" departPos="random_free" departSpeed="max">
        <route edges="E3-2 E3-1"/>
    </vehicle>
    <vehicle id="251" depart="2259.00" departLane="best" departPos="random_free" departSpeed="max">
        <route edges="E3-2 E3-5"/>
    </vehicle>
    <vehicle id="252" depart="2268.00" departLane="best" departPos="random_free" departSpeed="max">
        <route edges="E3-4 E3-5"/>
    </vehicle>