<?xml version='1.0' encoding='utf-8'?>
<additional><vType id="car_normal" accel="2.6" decel="4.5" sigma="0.5" length="5.0" maxSpeed="50.0" vClass="passenger" /><vType id="car_aggressive" accel="3.5" decel="5.0" sigma="0.3" length="4.5" maxSpeed="60.0" vClass="passenger" /><vType id="car_slow" accel="1.8" decel="3.5" sigma="0.8" length="5.5" maxSpeed="40.0" vClass="passenger" /><vType id="truck" accel="1.2" decel="3.0" sigma="0.6" length="12.0" maxSpeed="35.0" vClass="truck" /><vType id="bus" accel="1.0" decel="2.8" sigma="0.7" length="15.0" maxSpeed="30.0" vClass="bus" /><vType id="motorcycle" accel="4.0" decel="6.0" sigma="0.4" length="2.5" maxSpeed="70.0" vClass="motorcycle" /></additional>